/batch
/config,noeldb,1     ! force off writing results to database
*get,_wallstrt,active,,time,wall
! ANSYS input file written by Workbench version 2022 R1
! File used for geometry attach: C:\Users\29384\Desktop\Áã¼þ1.STEP
/title,wbnew--Static Structural (A5)
! ****** Begin Custom Load Command Snippet ******
/COM, ACT Extensions:
/COM,     LSDYNA, 2021.1
/COM,     5f463412-bd3e-484b-87e7-cbc0a665e474, wbex
/COM,
! ****** End   Custom Load Command Snippet ******
*DIM,_wb_ProjectScratch_dir,string,248
_wb_ProjectScratch_dir(1) = 'C:\Users\29384\AppData\Local\Temp\WB_29384_30732_2\_ProjectScratch\Scr12CE\'
*DIM,_wb_SolverFiles_dir,string,248
_wb_SolverFiles_dir(1) = 'C:\Users\29384\AppData\Local\Temp\WB_29384_30732_2\wbnew_files\dp0\SYS\MECH\'
*DIM,_wb_userfiles_dir,string,248
_wb_userfiles_dir(1) = 'C:\Users\29384\AppData\Local\Temp\WB_29384_30732_2\wbnew_files\user_files\'
/com,--- Data in consistent MKS units. See Solving Units in the help system for more information.
/units,MKS
/nopr
/wb,file,start              !  signify a WB generated input file
/prep7
! Turn off shape checking because checks already performed inside WB mesher.
! See help system for more information.
SHPP,OFF,,NOWARN
/nolist
etcon,set             ! allow ANSYS to choose best KEYOP's for 180x elements, resets any applicable keyopt to MAPDL defaults
/com,*********** Nodes for the whole assembly ***********
nblock,3,,2112
(1i9,3e20.9e3)
        1    -2.500000000E-03     0.000000000E+00     5.000000000E-03
        2     2.500000000E-03     3.061616998E-19     5.000000000E-03
        3    -2.022542486E-03    -1.469463131E-03     5.000000000E-03
        4    -7.725424859E-04    -2.377641291E-03     5.000000000E-03
        5     7.725424859E-04    -2.377641291E-03     5.000000000E-03
        6     2.022542486E-03    -1.469463131E-03     5.000000000E-03
        7     2.500000000E-03     3.061616998E-19     2.500000000E-03
        8     2.500000000E-03     3.061616998E-19     3.750000000E-03
        9    -2.500000000E-03     0.000000000E+00     2.500000000E-03
       10     2.022542486E-03    -1.469463131E-03     2.500000000E-03
       11     7.725424859E-04    -2.377641291E-03     2.500000000E-03
       12    -7.725424859E-04    -2.377641291E-03     2.500000000E-03
       13    -2.022542486E-03    -1.469463131E-03     2.500000000E-03
       14    -2.500000000E-03     0.000000000E+00     3.750000000E-03
       15     3.500000000E-03     4.286263797E-19     5.000000000E-03
       16    -3.500000000E-03     0.000000000E+00     5.000000000E-03
       17     3.031088913E-03     1.750000000E-03     5.000000000E-03
       18     1.750000000E-03     3.031088913E-03     5.000000000E-03
       19     2.143131899E-19     3.500000000E-03     5.000000000E-03
       20    -1.750000000E-03     3.031088913E-03     5.000000000E-03
! ... 1901 like lines cut
/wb,elem,start            !  set before creation of elements
/com,*********** Elements for Body 1 "__1-FreeParts|____-_" ***********
et,1,187
eblock,19,solid,,928
(19i9)
        1        1        1        1        0        0        0        0       10        0        1       59       62      339      325      691      717      696      695
      715     1918
        1        1        1        1        0        0        0        0       10        0        2       32      339      225       62      552     1563      549      548
      717      710
        1        1        1        1        0        0        0        0       10        0        3       62      225      296      339      710     1559      712      717
     1563     1863
        1        1        1        1        0        0        0        0       10        0        4       31      339       62      325      545      717      539      544
     1918      715
        1        1        1        1        0        0        0        0       10        0        5       31       62      339       32      539      717      545      536
      548      552
        1        1        1        1        0        0        0        0       10        0        6      225      339      260      296     1563     1720     1558     1559
     1863     1715
        1        1        1        1        0        0        0        0       10        0        7       32      225      339      260      549     1563      552      550
     1558     1720
        1        1        1        1        0        0        0        0       10        0        8       59      339      298      325      696     1869      694      695
     1918     1868
        1        1        1        1        0        0        0        0       10        0        9       59      298      339      296      694     1869      696      693
     1861     1863
        1        1        1        1        0        0        0        0       10        0       10       31      339      260       32      545     1720      542      536
      552      550
! ... 1837 like lines cut
!Material Id = {10D4AD39-D553-4A13-918C-356310DBAA09}
/wb,elem,end               !  done creating elements
/com,*********** Send User Defined Coordinate System(s) ***********
csys,0
toffst,273.15,  ! Temperature offset from absolute zero
/com,*********** Set Reference Temperature ***********
tref,22.
/wb,mat,start              !  starting to send materials
/com,*********** Send Materials ***********
Temperature = 'TEMP' ! Temperature
MP,DENS,1,7850,	! kg m^-3
MP,ALPX,1,1.2e-05,	! C^-1
MP,C,1,434,	! J kg^-1 C^-1
MP,KXX,1,60.5,	! W m^-1 C^-1
MP,RSVX,1,1.7e-07,	! kg m^3 A^-2 s^-3
MP,EX,1,200000000000,	! Pa
MP,NUXY,1,0.3,
MP,MURX,1,10000,
MP,UVID,1,6cb4cfff-67da-46ef-8a1c-e9b433fdfe59
MP,UMID,1,59002a79-71c2-428e-906b-55d7dbee100e

/wb,mat,end                !  done sending materials
!************************* Model Summary ********************
!__1-FreeParts|____-_,	Structural Steel,	matid,	1
!************************* End Model Summary ********************
! get the diagonal of the bounding box. Needed later for other things
*get,_xmin,node,,mnloc,x
*get,_ymin,node,,mnloc,y
*get,_zmin,node,,mnloc,z
*get,_xmax,node,,mxloc,x
*get,_ymax,node,,mxloc,y
*get,_zmax,node,,mxloc,z
_ASMDIAG=(_xmax-_xmin)*(_xmax-_xmin)+(_ymax-_ymin)*(_ymax-_ymin)+(_zmax-_zmin)*(_zmax-_zmin)
_ASMDIAG=SQRT(_ASMDIAG)
/wb,contact,start          !  starting to send contact
/wb,contact,end            !  done creating contacts
/golist
/wb,load,start             !  starting to send loads
/com,*********** Fixed Supports ***********
CMBLOCK,_FIXEDSU,NODE,       91
(8i10)
        38        46        51        52        53        63        69        70
       131       132       133       134       135       136       137       138
       139       140       141       142       143       144       145       146
       147       148       305       306       307       308       583       584
       630       631       649       650       656       657       663       665
       666       719       720       749       750       756       759       765
      1101      1105      1107      1109      1111      1114      1115      1117
      1122      1123      1125      1128      1130      1133      1135      1137
      1138      1140      1144      1148      1150      1155      1156      1159
      1161      1164      1165      1167      1171      1172      1173      1175
      1176      1179      1180      1183      1184      1186      1189      1195
      1878      1881      1884
cmsel,s,_FIXEDSU
d,all,all
nsel,all
/com,*********** Define Force Using Surface Effect Elements ***********
local,12,0,0.,0.,0.,0.,0.,0.
csys,0
et,2,154
eblock,10,,,32
(15i9)
     1559        2        2        2       12      109      110      309      309      982      990      309      986
     1560        2        2        2       12      110      310      309      309      991     1891      309      990
     1561        2        2        2       12      122      309      310      310     1061     1891      310     1062
     1562        2        2        2       12      123      311      124      124     1070     1075      124     1064
     1563        2        2        2       12      120      309      121      121     1052     1056      121     1047
     1564        2        2        2       12      100      101      309      309      932      945      309      940
     1565        2        2        2       12       99      100      120      120      926      934      120      928
     1566        2        2        2       12      113      114      311      311     1005     1014      311     1010
     1567        2        2        2       12      111      311      310      310      997     1894      310      996
     1568        2        2        2       12      101      108      309      309      942      980      309      945
     1569        2        2        2       12      122      310      123      123     1062     1069      123     1058
     1570        2        2        2       12      123      310      311      311     1069     1894      311     1070
     1571        2        2        2       12      110      111      310      310      988      996      310      991
     1572        2        2        2       12      111      112      311      311      993     1003      311      997
     1573        2        2        2       12      124      311      125      125     1075     1079      125     1071
     1574        2        2        2       12      121      309      122      122     1056     1061      122     1053
     1575        2        2        2       12      112      113      311      311      999     1010      311     1003
     1576        2        2        2       12      107      119      116      116      973     1021      116      972
     1577        2        2        2       12      100      309      120      120      940     1052      120      934
     1578        2        2        2       12      125      311      126      126     1079     1083      126     1076
! ... 13 like lines cut
esel,s,type,,2
keyop,2,2,1                ! Apply load in local coordinate system
keyop,2,7,1                ! Use original area so load is constant in large deformation
esel,all
/gst,on,on
fini
*get,_numnode,node,0,count
*get,_numelem,elem,0,count
*get, _MAXELEMNUM, elem, 0, NUM, MAX
*get, _MAXNODENUM, node, 0, NUM, MAX
*get, _MAXELEMTYPE, etyp, 0, NUM, MAX
*get, _MAXREALCONST, real, 0, NUM, MAX
/go
/wb,load,end               !  done creating loads
/com,--- Number of total nodes = %_numnode%
/com,--- Number of contact elements = 32
/com,--- Number of spring elements = 0
/com,--- Number of bearing elements = 0
/com,--- Number of solid elements = 928
/com,--- Number of condensed parts = 0
/com,--- Number of total elements = %_numelem%
*get,_wallbsol,active,,time,wall
/com,****************************************************************************
/com,*************************    SOLUTION       ********************************
/com,****************************************************************************
/solu
antype,0                   ! static analysis
_thickRatio=  0     ! Ratio of thick parts in the model
eqsl,sparse,,,,,1
cntr,print,1               ! print out contact info and also make no initial contact an error
dmpoption,emat,no             ! Don't combine emat file for DANSYS
dmpoption,esav,no             ! Don't combine esav file for DANSYS
nldiag,cont,iter           ! print out contact info each equilibrium iteration
rescontrol,,none                 ! Do not keep any restart files
/com,****************************************************
/com,******************* SOLVE FOR LS 1 OF 1 ****************
esel,s,type,,2
nsle
sfe,all,1,pres,1,0.
sfe,all,2,pres,1,2309401.07675783
sfe,all,3,pres,1,0.
nsel,all
esel,all
/nopr
/gopr
nsub,1,1,1
time,1.
outres,erase
outres,all,none
outres,nsol,all,
outres,rsol,all
outres,eangl,all
outres,etmp,all
outres,veng,all
outres,strs,all,
outres,epel,all,
outres,eppl,all,
outres,cont,all,
! *********** WB SOLVE COMMAND ***********
! check interactive state
*get,ANSINTER_,active,,int
*if,ANSINTER_,ne,0,then
/eof
*endif
solve
/com *************** Write FE CONNECTORS ********* 
CEWRITE,file,ce,,INTE
/com,****************************************************
/com,*************** FINISHED SOLVE FOR LS 1 *************
*get,_wallasol,active,,time,wall
/nopr
*get,_numnode,node,0,count
*get,_numelem,elem,0,count
*get, _MAXELEMNUM, elem, 0, NUM, MAX
*get, _MAXNODENUM, node, 0, NUM, MAX,,,INTERNAL
*get, _MAXELEMTYPE, etyp, 0, NUM, MAX
*get, _MAXREALCONST, real, 0, NUM, MAX
/gopr
/post1
xmlo,ENCODING,ISO-8859-1
xmlo,parm
/xml,parm,xml
fini
/gopr
*get,_walldone,active,,time,wall
_preptime=(_wallbsol-_wallstrt)*3600
_solvtime=(_wallasol-_wallbsol)*3600
_posttime=(_walldone-_wallasol)*3600
_totaltim=(_walldone-_wallstrt)*3600
*get,_dlbratio,active,0,solu,dlbr
*get,_combtime,active,0,solu,comb
*get,_ssmode,active,0,solu,ssmm
*get,_ndofs,active,0,solu,ndof
*get,_sol_end_time,active,0,set,time
*if,_sol_end_time,eq,1.000000,then
/fclean				!clean distributed files
*endif
/com,--- Total number of nodes = %_numnode%
/com,--- Total number of elements = %_numelem%
/com,--- Element load balance ratio = %_dlbratio%
/com,--- Time to combine distributed files = %_combtime%
/com,--- Sparse memory mode = %_ssmode%
/com,--- Number of DOF = %_ndofs%
/wb,file,end               ! done with WB generated input
